15 
structure 1 
O 0.00000000 0.00000000 0.00000000 
X 0.00000000 0.00000000 1.28480000 
X 5.00000000 0.00000000 1.28480000 
O 0.00000000 -0.00000000 2.56960000 
H 0.00000000 -0.00000000 1.55710000 
H 0.79212100 -0.07441200 -0.55036400 
H -0.63111900 0.52412800 -0.51347200 
H 0.88255600 0.31998400 2.95034800 
H 2.21457900 1.78538800 3.93731800 
H 2.94693900 0.43000300 3.84133200 
O 2.21268200 0.93829800 3.46881300 
H -0.29012300 -0.88889000 2.95905300 
H -0.65888800 -3.08161100 3.32619900 
H -1.54227600 -2.19876500 4.23401100 
O -0.74483800 -2.18737700 3.68549100 

15 
structure 2 
O 0.00000000 0.00000000 0.00000000 
X 0.00000000 0.00000000 1.22480000 
X 5.00000000 0.00000000 1.22480000 
O 0.00000000 -0.00000000 2.44960000 
H 0.00000000 -0.00000000 1.43710000 
H 0.76763000 -0.19995100 -0.55411700 
H -0.57080700 0.58107800 -0.52316300 
H 0.88149800 0.28739600 2.84840300 
H 2.25993900 1.70307900 3.87445000 
H 2.94841900 0.32655900 3.77354600 
O 2.23524300 0.86128400 3.39730500 
H -0.34873600 -0.85374200 2.85879400 
H -0.86270000 -3.02269300 3.30293300 
H -1.69806000 -2.05531400 4.16771200 
O -0.90117700 -2.11003000 3.62129600 

15 
structure 3 
O 0.00000000 0.00000000 0.00000000 
X 0.00000000 0.00000000 1.16480000 
X 5.00000000 0.00000000 1.16480000 
O 0.00000000 -0.00000000 2.32960000 
H 0.00000000 -0.00000000 1.31710000 
H 0.65413900 -0.43882000 -0.56222100 
H -0.42940900 0.67948800 -0.53987900 
H 0.89175900 0.17509900 2.75931200 
H 2.41224200 1.41041900 3.84577000 
H 2.94551800 -0.03124700 3.73098800 
O 2.30161000 0.58437700 3.35384400 
H -0.50521500 -0.74684500 2.77173500 
H -1.38251300 -2.78481600 3.36820300 
H -2.11012800 -1.62807700 4.08470400 
O -1.31113000 -1.84485100 3.58405400 

15 
structure 4 
O 0.00000000 0.00000000 0.00000000 
X 0.00000000 0.00000000 1.10480000 
X 5.00000000 0.00000000 1.10480000 
O 0.00000000 -0.00000000 2.20960000 
H 0.00000000 -0.00000000 1.19710000 
H 0.41434300 -0.66835900 -0.56435500 
H -0.23131000 0.75890700 -0.55533600 
H 0.87686600 0.04823400 2.68926400 
H 2.55963300 1.03519000 3.83868600 
H 2.83865000 -0.47794500 3.76205500 
O 2.31926900 0.23081100 3.35777100 
H -0.69283500 -0.52449500 2.70234400 
H -2.04610900 -2.21741000 3.54840500 
H -2.54055600 -0.83054200 4.01045600 
O -1.80316500 -1.28216500 3.57733400 

15 
structure 5 
O 0.00000000 0.00000000 0.00000000 
X 0.00000000 0.00000000 1.04480000 
X 5.00000000 0.00000000 1.04480000 
O 0.00000000 -0.00000000 2.08960000 
H 0.00000000 -0.00000000 1.07710000 
H -0.19880600 -0.76283900 -0.56231300 
H 0.19807200 0.76373200 -0.56129100 
H 0.81370500 -0.18129500 2.63333900 
H 2.76490400 0.16119100 3.83714900 
H 2.42339900 -1.34105400 3.82679900 
O 2.20606700 -0.49875100 3.40445300 
H -0.80538500 0.21642300 2.63221300 
H -2.76987400 -0.05760800 3.83658500 
H -2.40247900 1.43847800 3.79780300 
O -2.18606800 0.58148300 3.40572500 

15 
structure 6 
O 0.00000000 0.00000000 0.00000000 
X 0.00000000 0.00000000 0.98480000 
X 5.00000000 0.00000000 0.98480000 
O 0.00000000 -0.00000000 1.96960000 
H 0.00000000 0.00000000 0.95710000 
H -0.16740500 -0.77564800 -0.55574100 
H 0.17320000 0.77457800 -0.55544400 
H 0.79967900 -0.17472900 2.53070500 
H 2.77383600 0.18065900 3.74824000 
H 2.43022400 -1.31858800 3.76909200 
O 2.21511800 -0.48630600 3.32628800 
H -0.79802800 0.17858600 2.53199400 
H -2.75835000 -0.17298600 3.76968400 
H -2.42590500 1.32910200 3.76832100 
O -2.20757500 0.49252800 3.33523900 

15 
structure 7 
O 0.00000000 0.00000000 0.00000000 
X 0.00000000 0.00000000 0.98480000 
X 5.00000000 0.00000000 0.98480000 
O 0.00000000 -0.00000000 1.96960000 
H 0.00000000 -0.00000000 1.01710000 
H -0.15674400 -0.76911800 -0.56857400 
H 0.15598100 0.76906700 -0.56884800 
H 0.81257300 -0.16603600 2.52004000 
H 2.75960300 0.22268300 3.72290900 
H 2.44754300 -1.28601300 3.72889500 
O 2.20768800 -0.45145300 3.30343500 
H -0.81230600 0.16660700 2.52014100 
H -2.76304600 -0.21798500 3.71980400 
H -2.44916700 1.29035000 3.72410200 
O -2.20838800 0.45460300 3.30149600 

15 
structure 8 
O 0.00000000 0.00000000 0.00000000 
X 0.00000000 0.00000000 1.04480000 
X 5.00000000 0.00000000 1.04480000 
O 0.00000000 -0.00000000 2.08960000 
H 0.00000000 -0.00000000 1.13710000 
H -0.13967000 -0.76852300 -0.57266100 
H 0.14182500 0.76819800 -0.57257700 
H 0.82908300 -0.15632500 2.62383900 
H 2.75388500 0.26782500 3.79890800 
H 2.46883200 -1.24870400 3.80202700 
O 2.20980800 -0.41580500 3.38462300 
H -0.83024300 0.15173000 2.62300100 
H -2.76724400 -0.27798500 3.78164400 
H -2.48025200 1.23818500 3.79522000 
O -2.21532100 0.40646000 3.37924700 

15 
structure 9 
O 0.00000000 0.00000000 0.00000000 
X 0.00000000 0.00000000 1.10480000 
X 5.00000000 0.00000000 1.10480000 
O 0.00000000 -0.00000000 2.20960000 
H 0.00000000 -0.00000000 1.25710000 
H 0.10942300 -0.76300300 -0.58524200 
H -0.11356500 0.77637700 -0.56743100 
H 0.87362600 -0.14822900 2.67932000 
H 2.70549500 0.46631900 3.84616700 
H 2.74715400 -1.06442900 3.64788800 
O 2.30228900 -0.25938600 3.34973100 
H -0.79997500 -0.37898100 2.68049100 
H -2.36044600 -1.78583100 3.61829400 
H -2.72689600 -0.30567300 3.86415100 
O -2.14025800 -0.88197400 3.35492400 

15 
structure 10 
O 0.00000000 0.00000000 0.00000000 
X 0.00000000 0.00000000 1.16480000 
X 5.00000000 0.00000000 1.16480000 
O 0.00000000 -0.00000000 2.32960000 
H 0.00000000 -0.00000000 1.37710000 
H 0.12660700 -0.75240200 -0.59449600 
H -0.13518200 0.77566300 -0.56274700 
H 0.89039400 -0.17769700 2.76443000 
H 2.73433400 0.38493300 3.91323200 
H 2.78533100 -1.13289100 3.62429400 
O 2.31791800 -0.31806600 3.39539300 
H -0.77867300 -0.46690300 2.76464500 
H -2.23595000 -2.00535900 3.62888100 
H -2.70757400 -0.55964300 3.90646500 
O -2.07633500 -1.08166400 3.39185000 

15 
structure 11 
O 0.00000000 0.00000000 0.00000000 
X 0.00000000 0.00000000 1.22480000 
X 5.00000000 0.00000000 1.22480000 
O 0.00000000 -0.00000000 2.44960000 
H 0.00000000 -0.00000000 1.49710000 
H 0.66796900 -0.38117400 -0.58642100 
H -0.51409300 0.61203100 -0.54533400 
H 0.90328200 0.20850100 2.85655000 
H 2.38406200 1.49491800 3.88235500 
H 2.94316100 0.05770200 3.79705600 
O 2.27936500 0.65149800 3.41923400 
H -0.45226100 -0.80358600 2.86603100 
H -1.18202100 -2.88334400 3.33522300 
H -1.95606200 -1.81591200 4.13940900 
O -1.14424600 -1.96366500 3.63306100 

15 
structure 12 
O 0.00000000 0.00000000 0.00000000 
X 0.00000000 0.00000000 1.28480000 
X 5.00000000 0.00000000 1.28480000 
O 0.00000000 -0.00000000 2.56960000 
H 0.00000000 -0.00000000 1.61710000 
H 0.70944900 -0.29616900 -0.58640600 
H -0.55882500 0.57681400 -0.53917100 
H 0.90669400 0.23479300 2.96284500 
H 2.35374300 1.55862200 3.96319600 
H 2.94988600 0.13553000 3.87281400 
O 2.26712500 0.71206500 3.50192900 
H -0.40837000 -0.83881900 2.97039300 
H -1.03748000 -2.94811300 3.36486000 
H -1.84410300 -1.94513700 4.21924100 
O -1.02928400 -2.04252800 3.70570700 

15 
structure 13 
O 0.00000000 0.00000000 0.00000000 
X 0.00000000 0.00000000 1.28480000 
X 5.00000000 0.00000000 1.28480000 
O 0.00000000 -0.00000000 2.56960000 
H 0.00000000 -0.00000000 1.67710000 
H 0.62359500 -0.42054600 -0.60728100 
H -0.52533300 0.59697900 -0.55041800 
H 0.90905600 0.20959500 2.97704600 
H 2.37253500 1.48384900 3.99924700 
H 2.93419000 0.04572900 3.89375500 
O 2.26047600 0.64112200 3.53662400 
H -0.47018100 -0.80181400 2.98361900 
H -1.21543700 -2.84954000 3.41318000 
H -1.99998200 -1.77967100 4.20641400 
O -1.17224900 -1.93590100 3.72923900 

15 
structure 14 
O 0.00000000 0.00000000 0.00000000 
X 0.00000000 0.00000000 1.22480000 
X 5.00000000 0.00000000 1.22480000 
O 0.00000000 -0.00000000 2.44960000 
H 0.00000000 -0.00000000 1.55710000 
H 0.57927400 -0.48306200 -0.60503900 
H -0.48916500 0.62300200 -0.55537400 
H 0.90490600 0.19285800 2.86738000 
H 2.39142600 1.44068800 3.90869100 
H 2.92528100 -0.00745300 3.80994000 
O 2.26716700 0.60039600 3.44491300 
H -0.50015800 -0.77330500 2.87474700 
H -1.31997400 -2.79474100 3.36435300 
H -2.07758700 -1.67689100 4.11540500 
O -1.25398000 -1.87124900 3.64539200 

15 
structure 15 
O 0.00000000 0.00000000 0.00000000 
X 0.00000000 0.00000000 1.16480000 
X 5.00000000 0.00000000 1.16480000 
O 0.00000000 -0.00000000 2.32960000 
H 0.00000000 -0.00000000 1.43710000 
H 0.50441500 -0.56539000 -0.60137700 
H -0.43324500 0.65772500 -0.56248700 
H 0.89952200 0.16183700 2.76387300 
H 2.42389000 1.35613800 3.83727300 
H 2.91312800 -0.10625900 3.73169400 
O 2.27638300 0.52370600 3.36644700 
H -0.55253400 -0.72181500 2.77134100 
H -1.50528700 -2.68095500 3.34690800 
H -2.20580800 -1.48720200 4.03241800 
O -1.39345300 -1.74764900 3.57540100 

15 
structure 16 
O 0.00000000 0.00000000 0.00000000 
X 0.00000000 0.00000000 1.10480000 
X 5.00000000 0.00000000 1.10480000 
O 0.00000000 -0.00000000 2.20960000 
H 0.00000000 -0.00000000 1.31710000 
H 0.39742400 -0.65050400 -0.59651700 
H -0.33809700 0.70738400 -0.56849700 
H 0.89212000 0.09388900 2.66932900 
H 2.49941400 1.16316300 3.78612200 
H 2.86873700 -0.33318700 3.68568600 
O 2.29097000 0.34623600 3.31137400 
H -0.65099600 -0.60754400 2.67891300 
H -1.84616400 -2.40873400 3.38285000 
H -2.43213900 -1.09308800 3.94085500 
O -1.64780000 -1.47211200 3.51982800 

15 
structure 17 
O 0.00000000 0.00000000 0.00000000 
X 0.00000000 0.00000000 1.04480000 
X 5.00000000 0.00000000 1.04480000 
O 0.00000000 -0.00000000 2.08960000 
H 0.00000000 -0.00000000 1.19710000 
H 0.17833900 -0.74901800 -0.58783000 
H -0.13534900 0.76716100 -0.57641300 
H 0.86772800 -0.01980400 2.59365200 
H 2.60189900 0.79701400 3.77556300 
H 2.72308700 -0.73973900 3.69572200 
O 2.27346300 0.02038000 3.30147400 
H -0.79686000 -0.32497700 2.60275700 
H -2.41860600 -1.66167600 3.51880300 
H -2.69602400 -0.17433300 3.83052800 
O -2.02411500 -0.77948400 3.48746100 

15 
structure 18 
O 0.00000000 0.00000000 0.00000000 
X 0.00000000 0.00000000 0.98480000 
X 5.00000000 0.00000000 0.98480000 
O 0.00000000 -0.00000000 1.96960000 
H 0.00000000 -0.00000000 1.07710000 
H -0.16708700 -0.75856600 -0.58049400 
H 0.16760700 0.75818500 -0.58081500 
H 0.82148700 -0.18096500 2.50813400 
H 2.76472800 0.18088500 3.67652100 
H 2.42774400 -1.32458800 3.68500900 
O 2.19682400 -0.48478400 3.26487600 
H -0.81699900 0.19229500 2.51039800 
H -2.76792200 -0.14989100 3.67919300 
H -2.41707600 1.35302600 3.68981700 
O -2.18234500 0.50863500 3.28119200 

15 
structure 19 
O 0.00000000 0.00000000 0.00000000 
X 0.00000000 0.00000000 0.98480000 
X 5.00000000 0.00000000 0.98480000 
O 0.00000000 -0.00000000 1.96960000 
H 0.00000000 -0.00000000 1.13710000 
H -0.16753900 -0.75125200 -0.59040500 
H 0.16739100 0.75104800 -0.59066900 
H 0.83149200 -0.17830600 2.49953100 
H 2.76834800 0.19347900 3.63998800 
H 2.43377100 -1.31528600 3.65137800 
O 2.18571600 -0.47178500 3.24889200 
H -0.82605900 0.19805600 2.50061900 
H -2.76549500 -0.14154000 3.64833400 
H -2.41693200 1.36449700 3.64682000 
O -2.17034800 0.51372700 3.25927300 

15 
structure 20 
O 0.00000000 0.00000000 0.00000000 
X 0.00000000 0.00000000 1.04480000 
X 5.00000000 0.00000000 1.04480000 
O 0.00000000 -0.00000000 2.08960000 
H 0.00000000 -0.00000000 1.25710000 
H -0.29028500 -0.72153000 -0.57839800 
H 0.24608200 0.71898700 -0.60095900 
H 0.86190600 -0.13222000 2.59100900 
H 2.94894200 0.15191200 3.42754100 
H 2.38617700 -1.23718900 3.80347800 
O 2.13378300 -0.36726700 3.46372100 
H -0.71888100 0.50548200 2.58172500 
H -2.60779700 0.77987700 3.74430100 
H -1.86707900 2.13284400 3.64797500 
O -1.90221400 1.24275800 3.27124800 

15 
structure 21 
O 0.00000000 0.00000000 0.00000000 
X 0.00000000 0.00000000 1.10480000 
X 5.00000000 0.00000000 1.10480000 
O 0.00000000 -0.00000000 2.20960000 
H 0.00000000 -0.00000000 1.37710000 
H -0.32439700 -0.71346800 -0.56884100 
H 0.25310800 0.70939300 -0.60797400 
H 0.88847100 -0.10965500 2.67721200 
H 3.03054200 0.11703900 3.32429500 
H 2.39583900 -1.16265000 3.91312400 
O 2.18239200 -0.31310600 3.50170800 
H -0.65491400 0.61906300 2.66802000 
H -2.49626500 1.14991200 3.78437400 
H -1.58923600 2.39760100 3.67603600 
O -1.73443900 1.51352300 3.31157600 

15 
structure 22 
O 0.00000000 0.00000000 0.00000000 
X 0.00000000 0.00000000 1.16480000 
X 5.00000000 0.00000000 1.16480000 
O 0.00000000 -0.00000000 2.32960000 
H 0.00000000 -0.00000000 1.49710000 
H -0.35096300 -0.70461000 -0.56295100 
H 0.25525500 0.70458400 -0.61163000 
H 0.89862000 -0.13708900 2.77791000 
H 3.05327500 -0.00063300 3.34700200 
H 2.36976800 -1.22163700 4.00322700 
O 2.18967100 -0.37215900 3.57565300 
H -0.60235100 0.68663000 2.77092000 
H -2.39416900 1.37393300 3.85625900 
H -1.38606500 2.54245900 3.74339200 
O -1.60175200 1.66978300 3.38626600 

15 
structure 23 
O 0.00000000 0.00000000 0.00000000 
X 0.00000000 0.00000000 1.22480000 
X 5.00000000 0.00000000 1.22480000 
O 0.00000000 -0.00000000 2.44960000 
H 0.00000000 -0.00000000 1.61710000 
H -0.37161800 -0.69752700 -0.55771400 
H 0.25158100 0.70222100 -0.61518200 
H 0.90394600 -0.16312400 2.88550200 
H 3.06215700 -0.10530000 3.39619000 
H 2.34292200 -1.28096200 4.09674500 
O 2.18992600 -0.43032600 3.66067500 
H -0.56228200 0.73074000 2.87934000 
H -2.30752800 1.52587500 3.94666500 
H -1.23463100 2.63513000 3.82004700 
O -1.49881600 1.77092100 3.47504900 

15 
structure 24 
O 0.00000000 0.00000000 0.00000000 
X 0.00000000 0.00000000 1.28480000 
X 5.00000000 0.00000000 1.28480000 
O 0.00000000 -0.00000000 2.56960000 
H 0.00000000 -0.00000000 1.73710000 
H -0.38385000 -0.69352000 -0.55395200 
H 0.24158000 0.70307900 -0.61784100 
H 0.90672600 -0.18454200 2.99755600 
H 3.06398100 -0.18965900 3.46086200 
H 2.31994000 -1.32922900 4.19530800 
O 2.18772300 -0.47776500 3.75382200 
H -0.53373000 0.75918200 2.99227300 
H -2.24184900 1.62558800 4.04767400 
H -1.12580700 2.69150300 3.91062700 
O -1.42371100 1.83460500 3.57487900 

15 
structure 25 
O 0.00000000 0.00000000 0.00000000 
X 0.00000000 0.00000000 1.28480000 
X 5.00000000 0.00000000 1.28480000 
O 0.00000000 -0.00000000 2.56960000 
H 0.00000000 -0.00000000 1.79710000 
H -0.36331000 -0.70309400 -0.55565700 
H 0.24889300 0.69556800 -0.62339800 
H 0.90587800 -0.16053800 3.01261200 
H 3.04043600 -0.07402000 3.50851100 
H 2.34543700 -1.28044200 4.18307600 
O 2.17652700 -0.41724800 3.77824800 
H -0.59565200 0.70425200 3.00732600 
H -2.35366800 1.41890500 4.08542900 
H -1.32713400 2.57230800 3.93827500 
O -1.55349800 1.68975500 3.61354400 

15 
structure 26 
O 0.00000000 0.00000000 0.00000000 
X 0.00000000 0.00000000 1.22480000 
X 5.00000000 0.00000000 1.22480000 
O 0.00000000 -0.00000000 2.44960000 
H 0.00000000 -0.00000000 1.67710000 
H -0.35841800 -0.70427200 -0.55777300 
H 0.25761200 0.69374000 -0.62222300 
H 0.90096300 -0.15798400 2.89803500 
H 3.03414500 -0.04771200 3.43759000 
H 2.34776800 -1.27745900 4.07721200 
O 2.17108600 -0.41247400 3.67987800 
H -0.60589500 0.68910300 2.89242300 
H -2.37880800 1.36752900 3.98211100 
H -1.37753400 2.54215300 3.83742700 
O -1.58667900 1.65717100 3.50785200 

15 
structure 27 
O 0.00000000 0.00000000 0.00000000 
X 0.00000000 0.00000000 1.16480000 
X 5.00000000 0.00000000 1.16480000 
O 0.00000000 -0.00000000 2.32960000 
H 0.00000000 -0.00000000 1.55710000 
H -0.34095700 -0.71017400 -0.56194500 
H 0.25648400 0.69677800 -0.61990400 
H 0.89555500 -0.14814200 2.78608800 
H 3.02566900 -0.00246600 3.37426500 
H 2.35393300 -1.25561900 3.98220200 
O 2.16595400 -0.39197700 3.58748300 
H -0.62679300 0.66114800 2.78013300 
H -2.42719800 1.27123500 3.88118500 
H -1.47053900 2.48226300 3.74512800 
O -1.64734200 1.59332200 3.40754700 

15 
structure 28 
O 0.00000000 0.00000000 0.00000000 
X 0.00000000 0.00000000 1.10480000 
X 5.00000000 0.00000000 1.10480000 
O 0.00000000 -0.00000000 2.20960000 
H 0.00000000 -0.00000000 1.43710000 
H -0.31844600 -0.71694100 -0.56769100 
H 0.25460600 0.70031200 -0.61772300 
H 0.88701600 -0.12997500 2.68100300 
H 3.00056500 0.09708800 3.35049400 
H 2.38070400 -1.21818200 3.87601300 
O 2.15785700 -0.35173600 3.50681200 
H -0.66838800 0.60393500 2.67400300 
H -2.50952100 1.08375900 3.79367000 
H -1.63376000 2.35506800 3.67427900 
O -1.75265200 1.46142600 3.32398100 

15 
structure 29 
O 0.00000000 0.00000000 0.00000000 
X 0.00000000 0.00000000 1.04480000 
X 5.00000000 0.00000000 1.04480000 
O 0.00000000 -0.00000000 2.08960000 
H 0.00000000 -0.00000000 1.31710000 
H -0.27533700 -0.72720300 -0.57865000 
H 0.22956400 0.71544400 -0.61170100 
H 0.87265400 -0.11308600 2.58403600 
H 2.95291900 0.20797200 3.35992300 
H 2.41148300 -1.17968000 3.77281000 
O 2.14126600 -0.31222500 3.43991600 
H -0.72853100 0.50437000 2.57514800 
H -2.61067900 0.76031400 3.72455200 
H -1.87990000 2.12045000 3.62323300 
O -1.90405500 1.22609100 3.25590100 

15 
structure 30 
O 0.00000000 0.00000000 0.00000000 
X 0.00000000 0.00000000 0.98480000 
X 5.00000000 0.00000000 0.98480000 
O 0.00000000 -0.00000000 1.96960000 
H 0.00000000 -0.00000000 1.19710000 
H -0.10459400 -0.75684400 -0.59812300 
H 0.07954400 0.75982700 -0.59818700 
H 0.84740500 -0.10151700 2.50121600 
H 2.75865800 0.44484100 3.55647100 
H 2.56852300 -1.08923600 3.56127500 
O 2.10876400 -0.25393000 3.39872000 
H -0.85323000 0.10828700 2.49269900 
H -2.70265700 -0.43724200 3.64502600 
H -2.50575900 1.09655000 3.65057800 
O -2.21042800 0.28065600 3.22340200 

